Circuit: *** SPICE deck for cell div_sim{sch} from library lab1_dac

Unknown node in .ic card: "gnd" -- ignoring
WARNING: Less than two connections to node in.  This node is used by vdd.
Direct Newton iteration for .op point succeeded.

Date: Fri Sep 29 03:41:31 2023
Total elapsed time: 0.027 seconds.

tnom = 27
temp = 27
method = trap
totiter = 3
traniter = 0
tranpoints = 0
accept = 0
rejected = 0
matrix size = 6
fillins = 0
solver = Normal
Avg thread counts: 16.0/0.0/16.0/16.0
Matrix Compiler1: 164 bytes object code size
Matrix Compiler2: 320 bytes object code size
