Circuit: *** SPICE deck for cell lab_sim{sch} from library lab1_dac

.OP point found by inspection.

Date: Fri Sep 29 03:39:19 2023
Total elapsed time: 0.338 seconds.

tnom = 27
temp = 27
method = modified trap
totiter = 48084
traniter = 48084
tranpoints = 24043
accept = 24042
rejected = 1
matrix size = 13
fillins = 0
solver = Normal
Avg thread counts: 1.1/1.2/1.2/1.1
Matrix Compiler1: 568 bytes object code size  0.3/0.2/[0.1]
Matrix Compiler2: 905 bytes object code size  0.1/0.2/[0.1]

