Circuit: *** SPICE deck for cell ChargePump{sch} from library lab6

Direct Newton iteration for .op point succeeded.

Date: Tue Nov  7 15:09:47 2023
Total elapsed time: 43.359 seconds.

tnom = 27
temp = 27
method = modified trap
totiter = 1813674
traniter = 1813669
tranpoints = 887389
accept = 722174
rejected = 165215
matrix size = 26
fillins = 1
solver = Normal
Avg thread counts: 4.0/1.0/1.0/1.0
Matrix Compiler1: 2.75 KB object code size  0.9/0.6/[0.4]
Matrix Compiler2: 2.46 KB object code size  0.5/0.7/[0.3]

