Circuit: *** SPICE deck for cell Regulator{sch} from library lab6

Direct Newton iteration for .op point succeeded.

Date: Tue Nov  7 15:09:27 2023
Total elapsed time: 0.057 seconds.

tnom = 27
temp = 27
method = modified trap
totiter = 284
traniter = 270
tranpoints = 125
accept = 124
rejected = 1
matrix size = 19
fillins = 0
solver = Normal
Avg thread counts: 14.5/16.0/16.0/14.5
Matrix Compiler1: 2.01 KB object code size  0.9/0.5/[0.5]
Matrix Compiler2: 1.90 KB object code size  0.4/0.8/[0.3]

