Circuit: *** SPICE deck for cell flopr_c_1x_sim{sch} from library ringcounter4

Instance "m:flopr_c_@0:nmos@2": Length shorter than recommended for a level 3 MOSFET.
Instance "m:flopr_c_@0:nmos@2": Width narrower than recommended for a level 3 MOSFET.
Instance "m:flopr_c_@0:nmos@3": Length shorter than recommended for a level 3 MOSFET.
Instance "m:flopr_c_@0:nmos@3": Width narrower than recommended for a level 3 MOSFET.
Instance "m:flopr_c_@0:nmos@4": Length shorter than recommended for a level 3 MOSFET.
Instance "m:flopr_c_@0:nmos@4": Width narrower than recommended for a level 3 MOSFET.
Instance "m:flopr_c_@0:nmos@5": Length shorter than recommended for a level 3 MOSFET.
Instance "m:flopr_c_@0:nmos@5": Width narrower than recommended for a level 3 MOSFET.
Instance "m:flopr_c_@0:nmos@6": Length shorter than recommended for a level 3 MOSFET.
Instance "m:flopr_c_@0:nmos@6": Width narrower than recommended for a level 3 MOSFET.
Instance "m:flopr_c_@0:nmos@7": Length shorter than recommended for a level 3 MOSFET.
Instance "m:flopr_c_@0:nmos@7": Width narrower than recommended for a level 3 MOSFET.
Instance "m:flopr_c_@0:nmos@8": Length shorter than recommended for a level 3 MOSFET.
Instance "m:flopr_c_@0:nmos@8": Width narrower than recommended for a level 3 MOSFET.
Instance "m:flopr_c_@0:nmos@10": Length shorter than recommended for a level 3 MOSFET.
Instance "m:flopr_c_@0:nmos@10": Width narrower than recommended for a level 3 MOSFET.
Instance "m:flopr_c_@0:nmos@11": Length shorter than recommended for a level 3 MOSFET.
Instance "m:flopr_c_@0:nmos@17": Length shorter than recommended for a level 3 MOSFET.
Instance "m:flopr_c_@0:nmos@19": Length shorter than recommended for a level 3 MOSFET.
Instance "m:flopr_c_@0:nmos@19": Width narrower than recommended for a level 3 MOSFET.
Instance "m:flopr_c_@0:nmos@22": Length shorter than recommended for a level 3 MOSFET.
Instance "m:flopr_c_@0:nmos@22": Width narrower than recommended for a level 3 MOSFET.
Instance "m:flopr_c_@0:nmos@25": Length shorter than recommended for a level 3 MOSFET.
Instance "m:flopr_c_@0:nmos@25": Width narrower than recommended for a level 3 MOSFET.
Instance "m:flopr_c_@0:nmos@26": Length shorter than recommended for a level 3 MOSFET.
Instance "m:flopr_c_@0:nmos@26": Width narrower than recommended for a level 3 MOSFET.
Instance "m:flopr_c_@0:nmos@27": Length shorter than recommended for a level 3 MOSFET.
Instance "m:flopr_c_@0:nmos@27": Width narrower than recommended for a level 3 MOSFET.
Instance "m:flopr_c_@0:pmos@2": Length shorter than recommended for a level 3 MOSFET.
Instance "m:flopr_c_@0:pmos@2": Width narrower than recommended for a level 3 MOSFET.
Instance "m:flopr_c_@0:pmos@3": Length shorter than recommended for a level 3 MOSFET.
Instance "m:flopr_c_@0:pmos@4": Length shorter than recommended for a level 3 MOSFET.
Instance "m:flopr_c_@0:pmos@4": Width narrower than recommended for a level 3 MOSFET.
Instance "m:flopr_c_@0:pmos@5": Length shorter than recommended for a level 3 MOSFET.
Instance "m:flopr_c_@0:pmos@5": Width narrower than recommended for a level 3 MOSFET.
Instance "m:flopr_c_@0:pmos@6": Length shorter than recommended for a level 3 MOSFET.
Instance "m:flopr_c_@0:pmos@6": Width narrower than recommended for a level 3 MOSFET.
Instance "m:flopr_c_@0:pmos@7": Length shorter than recommended for a level 3 MOSFET.
Instance "m:flopr_c_@0:pmos@7": Width narrower than recommended for a level 3 MOSFET.
Instance "m:flopr_c_@0:pmos@8": Length shorter than recommended for a level 3 MOSFET.
Instance "m:flopr_c_@0:pmos@10": Length shorter than recommended for a level 3 MOSFET.
Instance "m:flopr_c_@0:pmos@10": Width narrower than recommended for a level 3 MOSFET.
Instance "m:flopr_c_@0:pmos@11": Length shorter than recommended for a level 3 MOSFET.
Instance "m:flopr_c_@0:pmos@16": Length shorter than recommended for a level 3 MOSFET.
Instance "m:flopr_c_@0:pmos@18": Length shorter than recommended for a level 3 MOSFET.
Instance "m:flopr_c_@0:pmos@18": Width narrower than recommended for a level 3 MOSFET.
Instance "m:flopr_c_@0:pmos@21": Length shorter than recommended for a level 3 MOSFET.
Instance "m:flopr_c_@0:pmos@22": Length shorter than recommended for a level 3 MOSFET.
Instance "m:flopr_c_@0:pmos@24": Length shorter than recommended for a level 3 MOSFET.
Instance "m:flopr_c_@0:pmos@25": Length shorter than recommended for a level 3 MOSFET.
Direct Newton iteration for .op point succeeded.

Date: Mon Nov 13 12:56:57 2023
Total elapsed time: 0.066 seconds.

tnom = 27
temp = 27
method = modified trap
totiter = 1840
traniter = 1806
tranpoints = 363
accept = 280
rejected = 83
matrix size = 25
fillins = 8
solver = Normal
Avg thread counts: 5.3/12.7/13.2/4.3
Matrix Compiler1: 2.86 KB object code size  0.5/0.3/[0.2]
Matrix Compiler2: 2.87 KB object code size  0.2/0.5/[0.2]

