Circuit: *** SPICE deck for cell FULLADDER_SIM{sch} from library lab5

Instance "m:fulladde@0:nand2@0:nmos@0": Length shorter than recommended for a level 3 MOSFET.
Instance "m:fulladde@0:nand2@0:nmos@0": Width narrower than recommended for a level 3 MOSFET.
Instance "m:fulladde@0:nand2@0:nmos@1": Length shorter than recommended for a level 3 MOSFET.
Instance "m:fulladde@0:nand2@0:nmos@1": Width narrower than recommended for a level 3 MOSFET.
Instance "m:fulladde@0:nand2@0:pmos@0": Length shorter than recommended for a level 3 MOSFET.
Instance "m:fulladde@0:nand2@0:pmos@0": Width narrower than recommended for a level 3 MOSFET.
Instance "m:fulladde@0:nand2@0:pmos@1": Length shorter than recommended for a level 3 MOSFET.
Instance "m:fulladde@0:nand2@0:pmos@1": Width narrower than recommended for a level 3 MOSFET.
Instance "m:fulladde@0:nand2@1:nmos@0": Length shorter than recommended for a level 3 MOSFET.
Instance "m:fulladde@0:nand2@1:nmos@0": Width narrower than recommended for a level 3 MOSFET.
Instance "m:fulladde@0:nand2@1:nmos@1": Length shorter than recommended for a level 3 MOSFET.
Instance "m:fulladde@0:nand2@1:nmos@1": Width narrower than recommended for a level 3 MOSFET.
Instance "m:fulladde@0:nand2@1:pmos@0": Length shorter than recommended for a level 3 MOSFET.
Instance "m:fulladde@0:nand2@1:pmos@0": Width narrower than recommended for a level 3 MOSFET.
Instance "m:fulladde@0:nand2@1:pmos@1": Length shorter than recommended for a level 3 MOSFET.
Instance "m:fulladde@0:nand2@1:pmos@1": Width narrower than recommended for a level 3 MOSFET.
Instance "m:fulladde@0:nand2@2:nmos@0": Length shorter than recommended for a level 3 MOSFET.
Instance "m:fulladde@0:nand2@2:nmos@0": Width narrower than recommended for a level 3 MOSFET.
Instance "m:fulladde@0:nand2@2:nmos@1": Length shorter than recommended for a level 3 MOSFET.
Instance "m:fulladde@0:nand2@2:nmos@1": Width narrower than recommended for a level 3 MOSFET.
Instance "m:fulladde@0:nand2@2:pmos@0": Length shorter than recommended for a level 3 MOSFET.
Instance "m:fulladde@0:nand2@2:pmos@0": Width narrower than recommended for a level 3 MOSFET.
Instance "m:fulladde@0:nand2@2:pmos@1": Length shorter than recommended for a level 3 MOSFET.
Instance "m:fulladde@0:nand2@2:pmos@1": Width narrower than recommended for a level 3 MOSFET.
Instance "m:fulladde@0:xor2@7:nmos@1": Length shorter than recommended for a level 3 MOSFET.
Instance "m:fulladde@0:xor2@7:nmos@1": Width narrower than recommended for a level 3 MOSFET.
Instance "m:fulladde@0:xor2@7:nmos@2": Length shorter than recommended for a level 3 MOSFET.
Instance "m:fulladde@0:xor2@7:nmos@2": Width narrower than recommended for a level 3 MOSFET.
Instance "m:fulladde@0:xor2@7:nmos@3": Length shorter than recommended for a level 3 MOSFET.
Instance "m:fulladde@0:xor2@7:nmos@3": Width narrower than recommended for a level 3 MOSFET.
Instance "m:fulladde@0:xor2@7:nmos@4": Length shorter than recommended for a level 3 MOSFET.
Instance "m:fulladde@0:xor2@7:nmos@4": Width narrower than recommended for a level 3 MOSFET.
Instance "m:fulladde@0:xor2@7:nmos@5": Length shorter than recommended for a level 3 MOSFET.
Instance "m:fulladde@0:xor2@7:nmos@5": Width narrower than recommended for a level 3 MOSFET.
Instance "m:fulladde@0:xor2@7:nmos@6": Length shorter than recommended for a level 3 MOSFET.
Instance "m:fulladde@0:xor2@7:nmos@6": Width narrower than recommended for a level 3 MOSFET.
Instance "m:fulladde@0:xor2@7:pmos@0": Length shorter than recommended for a level 3 MOSFET.
Instance "m:fulladde@0:xor2@7:pmos@0": Width narrower than recommended for a level 3 MOSFET.
Instance "m:fulladde@0:xor2@7:pmos@1": Length shorter than recommended for a level 3 MOSFET.
Instance "m:fulladde@0:xor2@7:pmos@1": Width narrower than recommended for a level 3 MOSFET.
Instance "m:fulladde@0:xor2@7:pmos@2": Length shorter than recommended for a level 3 MOSFET.
Instance "m:fulladde@0:xor2@7:pmos@2": Width narrower than recommended for a level 3 MOSFET.
Instance "m:fulladde@0:xor2@7:pmos@3": Length shorter than recommended for a level 3 MOSFET.
Instance "m:fulladde@0:xor2@7:pmos@3": Width narrower than recommended for a level 3 MOSFET.
Instance "m:fulladde@0:xor2@7:pmos@4": Length shorter than recommended for a level 3 MOSFET.
Instance "m:fulladde@0:xor2@7:pmos@4": Width narrower than recommended for a level 3 MOSFET.
Instance "m:fulladde@0:xor2@7:pmos@5": Length shorter than recommended for a level 3 MOSFET.
Instance "m:fulladde@0:xor2@7:pmos@5": Width narrower than recommended for a level 3 MOSFET.
Instance "m:fulladde@0:xor2@8:nmos@1": Length shorter than recommended for a level 3 MOSFET.
Instance "m:fulladde@0:xor2@8:nmos@1": Width narrower than recommended for a level 3 MOSFET.
Instance "m:fulladde@0:xor2@8:nmos@2": Length shorter than recommended for a level 3 MOSFET.
Instance "m:fulladde@0:xor2@8:nmos@2": Width narrower than recommended for a level 3 MOSFET.
Instance "m:fulladde@0:xor2@8:nmos@3": Length shorter than recommended for a level 3 MOSFET.
Instance "m:fulladde@0:xor2@8:nmos@3": Width narrower than recommended for a level 3 MOSFET.
Instance "m:fulladde@0:xor2@8:nmos@4": Length shorter than recommended for a level 3 MOSFET.
Instance "m:fulladde@0:xor2@8:nmos@4": Width narrower than recommended for a level 3 MOSFET.
Instance "m:fulladde@0:xor2@8:nmos@5": Length shorter than recommended for a level 3 MOSFET.
Instance "m:fulladde@0:xor2@8:nmos@5": Width narrower than recommended for a level 3 MOSFET.
Instance "m:fulladde@0:xor2@8:nmos@6": Length shorter than recommended for a level 3 MOSFET.
Instance "m:fulladde@0:xor2@8:nmos@6": Width narrower than recommended for a level 3 MOSFET.
Instance "m:fulladde@0:xor2@8:pmos@0": Length shorter than recommended for a level 3 MOSFET.
Instance "m:fulladde@0:xor2@8:pmos@0": Width narrower than recommended for a level 3 MOSFET.
Instance "m:fulladde@0:xor2@8:pmos@1": Length shorter than recommended for a level 3 MOSFET.
Instance "m:fulladde@0:xor2@8:pmos@1": Width narrower than recommended for a level 3 MOSFET.
Instance "m:fulladde@0:xor2@8:pmos@2": Length shorter than recommended for a level 3 MOSFET.
Instance "m:fulladde@0:xor2@8:pmos@2": Width narrower than recommended for a level 3 MOSFET.
Instance "m:fulladde@0:xor2@8:pmos@3": Length shorter than recommended for a level 3 MOSFET.
Instance "m:fulladde@0:xor2@8:pmos@3": Width narrower than recommended for a level 3 MOSFET.
Instance "m:fulladde@0:xor2@8:pmos@4": Length shorter than recommended for a level 3 MOSFET.
Instance "m:fulladde@0:xor2@8:pmos@4": Width narrower than recommended for a level 3 MOSFET.
Instance "m:fulladde@0:xor2@8:pmos@5": Length shorter than recommended for a level 3 MOSFET.
Instance "m:fulladde@0:xor2@8:pmos@5": Width narrower than recommended for a level 3 MOSFET.
Direct Newton iteration for .op point succeeded.

Date: Wed Nov  1 20:52:32 2023
Total elapsed time: 0.427 seconds.

tnom = 27
temp = 27
method = modified trap
totiter = 7124
traniter = 7089
tranpoints = 1564
accept = 1377
rejected = 187
matrix size = 28
fillins = 6
solver = Normal
Avg thread counts: 4.3/5.5/4.8/1.8
Matrix Compiler1: 2.88 KB object code size  1.4/0.7/[0.3]
Matrix Compiler2: 3.43 KB object code size  0.6/0.9/[0.6]

