Circuit: *** SPICE deck for cell NAND2_SIM{sch} from library lab5

Instance "m:nand2@0:nmos@0": Length shorter than recommended for a level 3 MOSFET.
Instance "m:nand2@0:nmos@0": Width narrower than recommended for a level 3 MOSFET.
Instance "m:nand2@0:nmos@1": Length shorter than recommended for a level 3 MOSFET.
Instance "m:nand2@0:nmos@1": Width narrower than recommended for a level 3 MOSFET.
Instance "m:nand2@0:pmos@0": Length shorter than recommended for a level 3 MOSFET.
Instance "m:nand2@0:pmos@0": Width narrower than recommended for a level 3 MOSFET.
Instance "m:nand2@0:pmos@1": Length shorter than recommended for a level 3 MOSFET.
Instance "m:nand2@0:pmos@1": Width narrower than recommended for a level 3 MOSFET.
Direct Newton iteration for .op point succeeded.

Date: Wed Nov  1 18:27:38 2023
Total elapsed time: 0.174 seconds.

tnom = 27
temp = 27
method = modified trap
totiter = 3152
traniter = 3142
tranpoints = 1162
accept = 1134
rejected = 28
matrix size = 8
fillins = 0
solver = Normal
Avg thread counts: 2.9/6.0/6.1/2.9
Matrix Compiler1: 300 bytes object code size  0.3/0.2/[0.2]
Matrix Compiler2: off  [0.2]/0.2/0.2

