Circuit: *** SPICE deck for cell XOR2_SIM{sch} from library lab5

Instance "m:xor2@0:nmos@1": Length shorter than recommended for a level 3 MOSFET.
Instance "m:xor2@0:nmos@1": Width narrower than recommended for a level 3 MOSFET.
Instance "m:xor2@0:nmos@2": Length shorter than recommended for a level 3 MOSFET.
Instance "m:xor2@0:nmos@2": Width narrower than recommended for a level 3 MOSFET.
Instance "m:xor2@0:nmos@3": Length shorter than recommended for a level 3 MOSFET.
Instance "m:xor2@0:nmos@3": Width narrower than recommended for a level 3 MOSFET.
Instance "m:xor2@0:nmos@4": Length shorter than recommended for a level 3 MOSFET.
Instance "m:xor2@0:nmos@4": Width narrower than recommended for a level 3 MOSFET.
Instance "m:xor2@0:nmos@5": Length shorter than recommended for a level 3 MOSFET.
Instance "m:xor2@0:nmos@5": Width narrower than recommended for a level 3 MOSFET.
Instance "m:xor2@0:nmos@6": Length shorter than recommended for a level 3 MOSFET.
Instance "m:xor2@0:nmos@6": Width narrower than recommended for a level 3 MOSFET.
Instance "m:xor2@0:pmos@0": Length shorter than recommended for a level 3 MOSFET.
Instance "m:xor2@0:pmos@0": Width narrower than recommended for a level 3 MOSFET.
Instance "m:xor2@0:pmos@1": Length shorter than recommended for a level 3 MOSFET.
Instance "m:xor2@0:pmos@1": Width narrower than recommended for a level 3 MOSFET.
Instance "m:xor2@0:pmos@2": Length shorter than recommended for a level 3 MOSFET.
Instance "m:xor2@0:pmos@2": Width narrower than recommended for a level 3 MOSFET.
Instance "m:xor2@0:pmos@3": Length shorter than recommended for a level 3 MOSFET.
Instance "m:xor2@0:pmos@3": Width narrower than recommended for a level 3 MOSFET.
Instance "m:xor2@0:pmos@4": Length shorter than recommended for a level 3 MOSFET.
Instance "m:xor2@0:pmos@4": Width narrower than recommended for a level 3 MOSFET.
Instance "m:xor2@0:pmos@5": Length shorter than recommended for a level 3 MOSFET.
Instance "m:xor2@0:pmos@5": Width narrower than recommended for a level 3 MOSFET.
Direct Newton iteration for .op point succeeded.

Date: Wed Nov  1 16:54:05 2023
Total elapsed time: 0.268 seconds.

tnom = 27
temp = 27
method = modified trap
totiter = 3710
traniter = 3693
tranpoints = 1173
accept = 1131
rejected = 42
matrix size = 13
fillins = 2
solver = Normal
Avg thread counts: 3.9/6.0/6.0/2.6
Matrix Compiler1: 996 bytes object code size  0.4/0.4/[0.2]
Matrix Compiler2: off  [0.3]/0.4/0.3

