Circuit: *** SPICE deck for cell sim_2{sch} from library lab4

Ignoring BSIM parameter XL
Ignoring BSIM parameter XW
Ignoring BSIM parameter XL
Ignoring BSIM parameter XW
Warning: Pd = 0 is less than W.
Warning: Ps = 0 is less than W.
Warning: Pd = 0 is less than W.
Warning: Ps = 0 is less than W.
Warning: Pd = 0 is less than W.
Warning: Ps = 0 is less than W.
Warning: Pd = 0 is less than W.
Warning: Ps = 0 is less than W.
Direct Newton iteration for .op point succeeded.
.step x=1e-13
.step x=1e-12
.step x=1e-11
.step x=1e-10

Date: Wed Oct 18 18:01:50 2023
Total elapsed time: 0.161 seconds.

tnom = 27
temp = 27
method = modified trap
totiter = 657
traniter = 644
tranpoints = 320
accept = 303
rejected = 17
matrix size = 6
fillins = 0
solver = Normal
Avg thread counts: 9.3/13.4/13.5/9.3
Matrix Compiler1: 182 bytes object code size  0.1/0.1/[0.0]
Matrix Compiler2: 448 bytes object code size  0.1/0.1/[0.0]

