Circuit: *** SPICE deck for cell sim_1{sch} from library lab4

Ignoring BSIM parameter XL
Ignoring BSIM parameter XW
Ignoring BSIM parameter XL
Ignoring BSIM parameter XW
Warning: Pd = 0 is less than W.
Warning: Ps = 0 is less than W.
Warning: Pd = 0 is less than W.
Warning: Ps = 0 is less than W.
Warning: Pd = 0 is less than W.
Warning: Ps = 0 is less than W.
Warning: Pd = 0 is less than W.
Warning: Ps = 0 is less than W.

Date: Wed Oct 18 17:48:59 2023
Total elapsed time: 0.139 seconds.

tnom = 27
temp = 27
method = trap
totiter = 10013
traniter = 0
tranpoints = 0
accept = 0
rejected = 0
matrix size = 6
fillins = 0
solver = Normal
Avg thread counts: 1.6/0.0/2.2/1.6
Matrix Compiler1: 182 bytes object code size  0.1/0.1/[0.0]
Matrix Compiler2: off  [0.1]/0.2/0.1

